powerfactory/powerfactory-converter/src/test/resources/ieee14.dgs
$$General;ID(a:40);Descr(a:40);Val(a:40)
  1;Version;5.0


$$ElmLne;ID(a:40);loc_name(a:40);fold_id(p);typ_id(p);dline(r);chr_name(a:20)
  2;lne_10_11_1;30;169;1;
  3;lne_12_13_1;30;170;1;
  4;lne_13_14_1;30;171;1;
  5;lne_1_2_1;30;172;1;
  6;lne_1_5_1;30;173;1;
  7;lne_2_3_1;30;174;1;
  8;lne_2_4_1;30;175;1;
  9;lne_2_5_1;30;176;1;
  10;lne_3_4_1;30;177;1;
  11;lne_4_5_1;30;178;1;
  12;lne_6_11_1;30;179;1;
  13;lne_6_12_1;30;180;1;
  14;lne_6_13_1;30;181;1;
  15;lne_7_8_1;30;182;1;
  16;lne_7_9_1;30;183;1;
  17;lne_9_10_1;30;184;1;
  18;lne_9_14_1;30;185;1;


$$ElmLod;ID(a:40);loc_name(a:40);fold_id(p);typ_id(p);chr_name(a:20);plini(r);qlini(r);scale0(r)
  19;lod_10_1;30;186;;9;5.8;1
  20;lod_11_1;30;186;;3.5;1.8;1
  21;lod_12_1;30;186;;6.1;1.6;1
  22;lod_13_1;30;186;;13.5;5.8;1
  23;lod_14_1;30;186;;14.9;5;1
  24;lod_2_1;30;186;;21.7;12.7;1
  25;lod_3_1;30;186;;94.2;19;1
  26;lod_4_1;30;186;;47.8;-3.9;1
  27;lod_5_1;30;186;;7.6;1.6;1
  28;lod_6_1;30;186;;11.2;7.5;1
  29;lod_9_1;30;186;;29.5;16.6;1


$$ElmNet;ID(a:40);loc_name(a:40);fold_id(p);frnom(r)
  30;1 IEEE14;;60


$$ElmShnt;ID(a:40);loc_name(a:40);fold_id(p);chr_name(a:20);shtype(i);ushnm(r);qcapn(r);ncapx(i);ncapa(i);outserv(i);gparac(r);bcap(r);xrea(r);rrea(r)
  31;shntfix_9_ 1;30;;2;138;19;1;1;0;0;997.6896;1163.98;0


$$ElmSym;ID(a:40);loc_name(a:40);fold_id(p);typ_id(p);ngnum(i);i_mot(i);chr_name(a:20);outserv(i);pgini(r);qgini(r);usetp(r);iv_mode(i);q_min(r);q_max(r);Pmin_uc(r);Pmax_uc(r);iqtype(i)
  32;sym_1_1;30;187;1;0;;0;0;0;1.06;1;0;0;-10000;10000;0
  33;sym_2_1;30;188;1;0;;0;40;0;1.045;1;-0.666667;0.833333;-10000;10000;0
  34;sym_3_1;30;189;1;0;;0;0;0;1.01;1;0;0.666667;-10000;10000;0
  35;sym_6_1;30;190;1;0;;0;0;0;1.07;1;-0.24;0.96;-10000;10000;0
  36;sym_8_1;30;191;1;0;;0;0;0;1.09;1;-0.24;0.96;-10000;10000;0


$$ElmTerm;ID(a:40);loc_name(a:40);fold_id(p);typ_id(p);iUsage(i);uknom(r);chr_name(a:20);outserv(i)
  37;1 Bus 1;30;;0;138;;0
  38;10 Bus 10;30;;0;138;;0
  39;11 Bus 11;30;;0;138;;0
  40;12 Bus 12;30;;0;138;;0
  41;13 Bus 13;30;;0;138;;0
  42;14 Bus 14;30;;0;138;;0
  43;2 Bus 2;30;;0;138;;0
  44;3 Bus 3;30;;0;138;;0
  45;4 Bus 4;30;;0;138;;0
  46;5 Bus 5;30;;0;138;;0
  47;6 Bus 6;30;;0;138;;0
  48;7 Bus 7;30;;0;138;;0
  49;8 Bus 8;30;;0;138;;0
  50;9 Bus 9;30;;0;138;;0


$$ElmTr2;ID(a:40);loc_name(a:40);fold_id(p);typ_id(p);outserv(i);nntap(i);sernum(a:20);constr(i);chr_name(a:20)
  51;trf_4_7_1;30;192;0;0;;0;
  52;trf_4_9_1;30;193;0;0;;0;
  53;trf_5_6_1;30;194;0;0;;0;


$$ElmZone;ID(a:40);loc_name(a:40);fold_id(p);icolor(i);curscale(r)
  54;1_IEEE 14;;1;1


$$StaCubic;ID(a:40);loc_name(a:40);fold_id(p);chr_name(a:20);obj_bus(i);obj_id(p)
  55;lne_1_2_1;37;;0;5
  56;lne_1_5_1;37;;0;6
  57;sym_1_1;37;;0;32
  58;lne_10_11_1;38;;0;2
  59;lne_9_10_1;38;;1;17
  60;lod_10_1;38;;0;19
  61;lne_10_11_1;39;;1;2
  62;lne_6_11_1;39;;1;12
  63;lod_11_1;39;;0;20
  64;lne_12_13_1;40;;0;3
  65;lne_6_12_1;40;;1;13
  66;lod_12_1;40;;0;21
  67;lne_12_13_1;41;;1;3
  68;lne_13_14_1;41;;0;4
  69;lne_6_13_1;41;;1;14
  70;lod_13_1;41;;0;22
  71;lne_13_14_1;42;;1;4
  72;lne_9_14_1;42;;1;18
  73;lod_14_1;42;;0;23
  74;lne_1_2_1;43;;1;5
  75;lne_2_3_1;43;;0;7
  76;lne_2_4_1;43;;0;8
  77;lne_2_5_1;43;;0;9
  78;lod_2_1;43;;0;24
  79;sym_2_1;43;;0;33
  80;lne_2_3_1;44;;1;7
  81;lne_3_4_1;44;;0;10
  82;lod_3_1;44;;0;25
  83;sym_3_1;44;;0;34
  84;lne_2_4_1;45;;1;8
  85;lne_3_4_1;45;;1;10
  86;lne_4_5_1;45;;0;11
  87;lod_4_1;45;;0;26
  88;trf_4_7_1;45;;0;51
  89;trf_4_9_1;45;;0;52
  90;lne_1_5_1;46;;1;6
  91;lne_2_5_1;46;;1;9
  92;lne_4_5_1;46;;1;11
  93;lod_5_1;46;;0;27
  94;trf_5_6_1;46;;0;53
  95;lne_6_11_1;47;;0;12
  96;lne_6_12_1;47;;0;13
  97;lne_6_13_1;47;;0;14
  98;lod_6_1;47;;0;28
  99;sym_6_1;47;;0;35
  100;trf_5_6_1;47;;1;53
  101;lne_7_8_1;48;;0;15
  102;lne_7_9_1;48;;0;16
  103;trf_4_7_1;48;;1;51
  104;lne_7_8_1;49;;1;15
  105;sym_8_1;49;;0;36
  106;lne_7_9_1;50;;1;16
  107;lne_9_10_1;50;;0;17
  108;lne_9_14_1;50;;0;18
  109;lod_9_1;50;;0;29
  110;shntfix_9_ 1;50;;0;31
  111;trf_4_9_1;50;;1;52


$$StaSwitch;ID(a:40);loc_name(a:40);fold_id(p);on_off(i);typ_id(p);iUse(i)
  112;Switch;55;1;;1
  113;Switch;56;1;;1
  114;Switch;57;1;;1
  115;Switch;58;1;;1
  116;Switch;59;1;;1
  117;Switch;60;1;;1
  118;Switch;61;1;;1
  119;Switch;62;1;;1
  120;Switch;63;1;;1
  121;Switch;64;1;;1
  122;Switch;65;1;;1
  123;Switch;66;1;;1
  124;Switch;67;1;;1
  125;Switch;68;1;;1
  126;Switch;69;1;;1
  127;Switch;70;1;;1
  128;Switch;71;1;;1
  129;Switch;72;1;;1
  130;Switch;73;1;;1
  131;Switch;74;1;;1
  132;Switch;75;1;;1
  133;Switch;76;1;;1
  134;Switch;77;1;;1
  135;Switch;78;1;;1
  136;Switch;79;1;;1
  137;Switch;80;1;;1
  138;Switch;81;1;;1
  139;Switch;82;1;;1
  140;Switch;83;1;;1
  141;Switch;84;1;;1
  142;Switch;85;1;;1
  143;Switch;86;1;;1
  144;Switch;87;1;;1
  145;Switch;88;1;;1
  146;Switch;89;1;;1
  147;Switch;90;1;;1
  148;Switch;91;1;;1
  149;Switch;92;1;;1
  150;Switch;93;1;;1
  151;Switch;94;1;;1
  152;Switch;95;1;;1
  153;Switch;96;1;;1
  154;Switch;97;1;;1
  155;Switch;98;1;;1
  156;Switch;99;1;;1
  157;Switch;100;1;;1
  158;Switch;101;1;;1
  159;Switch;102;1;;1
  160;Switch;103;1;;1
  161;Switch;104;1;;1
  162;Switch;105;1;;1
  163;Switch;106;1;;1
  164;Switch;107;1;;1
  165;Switch;108;1;;1
  166;Switch;109;1;;1
  167;Switch;110;1;;1
  168;Switch;111;1;;1


$$TypLne;ID(a:40);loc_name(a:40);fold_id(p);uline(r);sline(r);aohl_(a:3);rline(r);xline(r);cline(r);rline0(r);xline0(r);cline0(r);rtemp(r);Ithr(r);chr_name(a:20);tline(r);bline(r)
  169;tlne_10_11_1;30;138;0.41837;cab;15.6256;36.5778;0;0;0;0;80;0;;0;0
  170;tlne_12_13_1;30;138;0.41837;cab;42.072;38.0651;0;0;0;0;80;0;;0;0
  171;tlne_13_14_1;30;138;0.41837;cab;32.5519;66.2769;0;0;0;0;80;0;;0;0
  172;tlne_1_2_1;30;138;0.41837;cab;3.69073;11.2683;0.735436;0;0;0;80;0;;0;277.253
  173;tlne_1_5_1;30;138;0.41837;cab;10.2895;42.4757;0.685292;0;0;0;80;0;;0;258.349
  174;tlne_2_3_1;30;138;0.41837;cab;8.94878;37.7014;0.610078;0;0;0;80;0;;0;229.994
  175;tlne_2_4_1;30;138;0.41837;cab;11.0665;33.5784;0.473576;0;0;0;80;0;;0;178.534
  176;tlne_2_5_1;30;138;0.41837;cab;10.8456;33.1137;0.481934;0;0;0;80;0;;0;181.685
  177;tlne_3_4_1;30;138;0.41837;cab;12.7614;32.571;0.178287;0;0;0;80;0;;0;67.2128
  178;tlne_4_5_1;30;138;0.41837;cab;2.54237;8.01943;0;0;0;0;80;0;;0;0
  179;tlne_6_11_1;30;138;0.41837;cab;18.088;37.8785;0;0;0;0;80;0;;0;0
  180;tlne_6_12_1;30;138;0.41837;cab;23.407;48.7165;0;0;0;0;80;0;;0;0
  181;tlne_6_13_1;30;138;0.41837;cab;12.5976;24.8086;0;0;0;0;80;0;;0;0
  182;tlne_7_8_1;30;138;0.41837;cab;0;33.546;0;0;0;0;80;0;;0;0
  183;tlne_7_9_1;30;138;0.41837;cab;0;20.9503;0;0;0;0;80;0;;0;0
  184;tlne_9_10_1;30;138;0.41837;cab;6.0579;16.0922;0;0;0;0;80;0;;0;0
  185;tlne_9_14_1;30;138;0.41837;cab;24.2068;51.4912;0;0;0;0;80;0;;0;0


$$TypLod;ID(a:40);loc_name(a:40);fold_id(p);kpu(r);kqu(r);systp(i)
  186;lodtyp_pq;;2;2;0


$$TypSym;ID(a:40);loc_name(a:40);fold_id(p);sgn(r);ugn(r);cosn(r);xd(r);xq(r);xdsss(r);rstr(r);xdsat(r);satur(i);Q_min(r);Q_max(r);q_min(r);q_max(r)
  187;tsym_1_1;30;615;138;1;2;2;1;0;1.2;0;-615;615;-1;1
  188;tsym_2_1;30;60;138;1;2;2;1;0;1.2;0;-60;60;-1;1
  189;tsym_3_1;30;60;138;1;2;2;1;0;1.2;0;-60;60;-1;1
  190;tsym_6_1;30;25;138;1;2;2;1;0;1.2;0;-25;25;-1;1
  191;tsym_8_1;30;25;138;1;2;2;1;0;1.2;0;-25;25;-1;1


$$TypTr2;ID(a:40);loc_name(a:40);fold_id(p);strn(r);frnom(r);utrn_h(r);utrn_l(r);uktr(r);pcutr(r);uk0tr(r);ur0tr(r);tr2cn_h(a:2);tr2cn_l(a:2);nt2ag(r);curmg(r);pfe(r);zx0hl_n(r);tap_side(i);dutap(r);phitr(r);nntap0(i);ntpmn(i);ntpmx(i);manuf(a:20);chr_name(a:20)
  192;ttrf_4_7_1;30;100;60;134.964;138;20.912;0;3;0;YN;YN;0;0;0;100;0;0.626582;0;0;-75;84;;
  193;ttrf_4_9_1;30;100;60;133.722;138;55.618;0;3;0;YN;YN;0;0;0;100;0;0.626582;0;0;-74;85;;
  194;ttrf_5_6_1;30;100;60;128.616;138;25.202;0;3;0;YN;YN;0;0;0;100;0;0.626582;0;0;-68;91;;
